15
GEOM_192_236
C    -0.8067180    0.0475439    1.5251484 
S     0.3116624    0.2691858    0.0786324 
H    -0.2255019   -0.2220590    2.4060774 
H    -1.4979938   -0.7535269    1.2757967 
H    -1.3445395    0.9720244    1.7264612 
C    -1.7888500    0.0067755   -1.8156700 
S    -0.5775000   -1.0730100   -0.9681860 
H    -2.5401200    0.3915220   -1.1219100 
H    -2.3028900   -0.5628580   -2.5942700 
H    -1.2866600    0.8562300   -2.2821400 
C     2.7521800    0.8881590    2.0485900 
S     1.5092000    1.9485100    1.2256400 
H     3.5054100    1.5204100    2.5253500 
H     2.2997200    0.2572150    2.8174500 
H     3.2484100    0.2430790    1.3220500 
