15
GEOM_190_220
C    -0.8067180    0.0475439    1.5251484 
S     0.3116624    0.2691858    0.0786324 
H    -0.2255019   -0.2220590    2.4060774 
H    -1.4979938   -0.7535269    1.2757967 
H    -1.3445395    0.9720244    1.7264612 
C    -1.7790900    0.0209031   -1.8054100 
S    -0.5677430   -1.0588900   -0.9579280 
H    -2.5303600    0.4056500   -1.1116500 
H    -2.2931400   -0.5487300   -2.5840100 
H    -1.2769100    0.8703580   -2.2718800 
C     2.6741300    0.7751380    1.9665300 
S     1.4311500    1.8354900    1.1435800 
H     3.4273500    1.4073900    2.4432900 
H     2.2216700    0.1441940    2.7353900 
H     3.1703600    0.1300580    1.2399900 
