15
GEOM_190_230
C    -0.8067180    0.0475439    1.5251484 
S     0.3116624    0.2691858    0.0786324 
H    -0.2255019   -0.2220590    2.4060774 
H    -1.4979938   -0.7535269    1.2757967 
H    -1.3445395    0.9720244    1.7264612 
C    -1.7790900    0.0209031   -1.8054100 
S    -0.5677430   -1.0588900   -0.9579280 
H    -2.5303600    0.4056500   -1.1116500 
H    -2.2931400   -0.5487300   -2.5840100 
H    -1.2769100    0.8703580   -2.2718800 
C     2.7229100    0.8457760    2.0178200 
S     1.4799300    1.9061200    1.1948700 
H     3.4761400    1.4780200    2.4945800 
H     2.2704500    0.2148320    2.7866800 
H     3.2191400    0.2006960    1.2912800 
