15
GEOM_192_208
C    -0.8067180    0.0475439    1.5251484 
S     0.3116624    0.2691858    0.0786324 
H    -0.2255019   -0.2220590    2.4060774 
H    -1.4979938   -0.7535269    1.2757967 
H    -1.3445395    0.9720244    1.7264612 
C    -1.7888500    0.0067755   -1.8156700 
S    -0.5775000   -1.0730100   -0.9681860 
H    -2.5401200    0.3915220   -1.1219100 
H    -2.3028900   -0.5628580   -2.5942700 
H    -1.2866600    0.8562300   -2.2821400 
C     2.6155900    0.6903720    1.9049800 
S     1.3726100    1.7507200    1.0820400 
H     3.3688200    1.3226200    2.3817500 
H     2.1631300    0.0594284    2.6738500 
H     3.1118200    0.0452922    1.1784500 
