15
GEOM_190_310
C    -0.8067180    0.0475439    1.5251484 
S     0.3116624    0.2691858    0.0786324 
H    -0.2255019   -0.2220590    2.4060774 
H    -1.4979938   -0.7535269    1.2757967 
H    -1.3445395    0.9720244    1.7264612 
C    -1.7790900    0.0209031   -1.8054100 
S    -0.5677430   -1.0588900   -0.9579280 
H    -2.5303600    0.4056500   -1.1116500 
H    -2.2931400   -0.5487300   -2.5840100 
H    -1.2769100    0.8703580   -2.2718800 
C     3.1131800    1.4108800    2.4281200 
S     1.8702000    2.4712300    1.6051800 
H     3.8664000    2.0431300    2.9048800 
H     2.6607200    0.7799360    3.1969900 
H     3.6094100    0.7658000    1.7015900 
