15
GEOM_192_192
C    -0.8067180    0.0475439    1.5251484 
S     0.3116624    0.2691858    0.0786324 
H    -0.2255019   -0.2220590    2.4060774 
H    -1.4979938   -0.7535269    1.2757967 
H    -1.3445395    0.9720244    1.7264612 
C    -1.7888500    0.0067755   -1.8156700 
S    -0.5775000   -1.0730100   -0.9681860 
H    -2.5401200    0.3915220   -1.1219100 
H    -2.3028900   -0.5628580   -2.5942700 
H    -1.2866600    0.8562300   -2.2821400 
C     2.5375400    0.5773510    1.8229200 
S     1.2945600    1.6377000    0.9999770 
H     3.2907600    1.2096000    2.2996900 
H     2.0850800   -0.0535924    2.5917900 
H     3.0337700   -0.0677286    1.0963900 
